Version 4
SHEET 1 1960 1044
WIRE 240 480 64 480
WIRE 384 480 240 480
WIRE 512 480 384 480
WIRE 560 480 512 480
WIRE 672 480 640 480
WIRE 800 480 672 480
WIRE 848 480 800 480
WIRE 960 480 912 480
WIRE 1024 480 960 480
WIRE 1168 480 1088 480
WIRE 1264 480 1168 480
WIRE 1376 480 1264 480
WIRE 64 496 64 480
WIRE 1264 496 1264 480
WIRE 1376 496 1376 480
WIRE 240 512 240 480
WIRE 1168 544 1168 480
WIRE 512 560 512 480
WIRE 672 560 672 480
WIRE 800 576 800 480
WIRE 64 592 64 576
WIRE 1264 592 1264 560
WIRE 1376 592 1376 576
WIRE 240 624 240 576
WIRE 384 656 384 480
WIRE 432 656 384 656
WIRE 1168 656 1168 624
WIRE 1168 656 752 656
WIRE 960 704 960 480
WIRE 1168 736 1168 656
WIRE 592 768 592 752
WIRE 1168 832 1168 816
WIRE 1392 864 1392 848
WIRE 960 896 960 768
WIRE 960 896 912 896
WIRE 1072 896 960 896
WIRE 1120 896 1072 896
WIRE 800 960 800 640
WIRE 912 960 800 960
WIRE 992 960 912 960
WIRE 1072 960 1056 960
WIRE 1392 960 1392 944
WIRE 1392 960 1072 960
FLAG 1376 480 OUT+
FLAG 1168 832 0
FLAG 1264 592 0
FLAG 1376 592 0
FLAG 592 768 0
FLAG 64 592 0
FLAG 64 480 IN
FLAG 240 624 0
FLAG 1120 896 0
FLAG 1392 960 OUT-
FLAG 1392 848 0
SYMBOL VOLTAGE 64 480 R0
WINDOW 123 0 0 Left 0
WINDOW 39 24 124 Left 2
SYMATTR InstName V1
SYMATTR Value 5
SYMATTR SpiceLine Rser=1
SYMBOL RES 1152 720 R0
SYMATTR InstName R2
SYMATTR Value 13.3k
SYMBOL ind 544 496 R270
WINDOW 0 32 56 VTop 2
WINDOW 3 5 56 VBottom 2
SYMATTR InstName L1
SYMATTR Value 3.3µ
SYMBOL schottky 1024 496 R270
WINDOW 0 32 32 VTop 2
WINDOW 3 0 32 VBottom 2
SYMATTR InstName D1
SYMATTR Value MBRS130L
SYMBOL POWERPRODUCTS\\LT1930 592 656 R0
WINDOW 0 0 -120 Center 2
WINDOW 3 32 120 Left 2
SYMATTR InstName U1
SYMBOL RES 1360 480 R0
SYMATTR InstName Rload1
SYMATTR Value 200
SYMBOL res 1152 528 R0
SYMATTR InstName R1
SYMATTR Value 113k
SYMBOL cap 784 576 R0
SYMATTR InstName C4
SYMATTR Value 1µ
SYMBOL schottky 976 768 R180
WINDOW 0 24 64 Left 2
WINDOW 3 24 0 Left 2
SYMATTR InstName D2
SYMATTR Value MBRS130L
SYMBOL schottky 928 960 R180
WINDOW 0 24 64 Left 2
WINDOW 3 24 0 Left 2
SYMATTR InstName D3
SYMATTR Value MBRS130L
SYMBOL schottky 1056 944 R90
WINDOW 0 0 32 VBottom 2
WINDOW 3 32 32 VTop 2
SYMATTR InstName D4
SYMATTR Value MBRS130L
SYMBOL RES 1408 960 R180
WINDOW 0 36 76 Left 2
WINDOW 3 36 40 Left 2
SYMATTR InstName Rload2
SYMATTR Value 200
SYMBOL cap 1056 896 R0
SYMATTR InstName C5
SYMATTR Value 2.2µ
SYMBOL cap 1248 496 R0
SYMATTR InstName C2
SYMATTR Value 2.2µ
SYMBOL cap 224 512 R0
SYMATTR InstName C1
SYMATTR Value 4.7µ
SYMBOL cap 912 464 R90
WINDOW 0 0 32 VBottom 2
WINDOW 3 32 32 VTop 2
SYMATTR InstName C3
SYMATTR Value 1µ
TEXT 216 928 Left 2 !.tran 1m startup
