Version 4
SHEET 1 1960 1044
WIRE 384 480 288 480
WIRE 512 480 384 480
WIRE 560 480 512 480
WIRE 672 480 640 480
WIRE 768 480 672 480
WIRE 912 480 832 480
WIRE 1760 480 912 480
WIRE 1872 480 1760 480
WIRE 288 496 288 480
WIRE 1760 496 1760 480
WIRE 1872 496 1872 480
WIRE 912 512 912 480
WIRE 512 560 512 480
WIRE 672 560 672 480
WIRE 288 592 288 576
WIRE 1760 592 1760 560
WIRE 1872 592 1872 576
WIRE 864 624 768 624
WIRE 912 624 912 592
WIRE 912 624 864 624
WIRE 912 640 912 624
WIRE 384 656 384 480
WIRE 432 656 384 656
WIRE 768 656 768 624
WIRE 768 656 752 656
WIRE 864 752 864 624
WIRE 912 752 912 720
WIRE 912 752 864 752
WIRE 592 768 592 752
WIRE 912 928 912 752
WIRE 912 1024 912 1008
FLAG 1872 480 OUT
FLAG 912 1024 0
FLAG 1760 592 0
FLAG 1872 592 0
FLAG 592 768 0
FLAG 288 592 0
FLAG 288 480 IN
SYMBOL VOLTAGE 288 480 R0
SYMATTR InstName V1
SYMATTR Value 5
SYMBOL RES 896 912 R0
SYMATTR InstName R2
SYMATTR Value 13k
SYMBOL ind 544 496 R270
WINDOW 0 32 56 VTop 2
WINDOW 3 5 56 VBottom 2
SYMATTR InstName L1
SYMATTR Value 10µ
SYMATTR SpiceLine Rser=0.182
SYMBOL schottky 768 496 R270
WINDOW 0 32 32 VTop 2
WINDOW 3 0 32 VBottom 2
SYMATTR InstName D1
SYMATTR Value MBRS130L
SYMBOL POLCAP 1744 496 R0
SYMATTR InstName C2
SYMATTR Value 4.7µ
SYMATTR SpiceLine Rser=.05
SYMBOL POWERPRODUCTS\\LT1930 592 656 R0
WINDOW 0 0 -120 Center 2
WINDOW 3 32 120 Left 2
SYMATTR InstName U1
SYMBOL RES 1856 480 R0
SYMATTR InstName Rload
SYMATTR Value 200
SYMBOL res 896 496 R0
SYMATTR InstName R1
SYMATTR Value {x1}
SYMBOL res 896 624 R0
SYMATTR InstName R3
SYMATTR Value {x2}
TEXT 216 928 Left 2 !.tran 1.5m startup
TEXT 1016 736 Left 2 !.param x1 = R*(val/100)
TEXT 1016 784 Left 2 !.param x2 = R*(1.0001-(val/100))
TEXT 1016 824 Left 2 !.param R=500k
TEXT 1024 864 Left 2 !.step param val 10 100 10
