Version 4
SHEET 1 880 680
WIRE 432 -176 432 -208
WIRE 432 -16 432 -96
WIRE 496 -16 432 -16
WIRE 656 -16 560 -16
WIRE 128 0 96 0
WIRE 320 0 208 0
WIRE 432 0 432 -16
WIRE 432 0 384 0
WIRE 96 16 96 0
WIRE 96 16 48 16
WIRE 576 80 400 80
WIRE 656 80 656 -16
WIRE 656 80 576 80
WIRE 688 80 656 80
WIRE -288 96 -320 96
WIRE -160 96 -224 96
WIRE -32 96 -160 96
WIRE 48 96 48 16
WIRE 48 96 -32 96
WIRE 688 112 688 80
WIRE -320 128 -320 96
WIRE -160 128 -160 96
WIRE -32 128 -32 96
WIRE 320 128 320 0
WIRE 320 128 256 128
WIRE 48 144 48 96
WIRE 80 144 48 144
WIRE 400 144 368 144
WIRE 448 144 400 144
WIRE 576 144 576 80
WIRE 576 144 528 144
WIRE 368 160 368 144
WIRE 368 160 256 160
WIRE 400 160 400 144
WIRE 80 176 32 176
WIRE 576 176 576 144
WIRE 320 192 256 192
WIRE -32 240 -32 208
WIRE 32 240 32 176
WIRE 32 240 -32 240
WIRE -320 256 -320 208
WIRE -160 256 -160 192
WIRE -160 256 -320 256
WIRE 160 256 -160 256
WIRE 320 256 320 192
WIRE 320 256 160 256
WIRE 400 256 400 240
WIRE 400 256 320 256
WIRE 576 256 576 240
WIRE 576 256 400 256
WIRE 688 256 688 192
WIRE 688 256 576 256
WIRE 160 304 160 256
FLAG 160 304 0
FLAG 432 -208 0
SYMBOL LMR64010_TRANS 160 160 R0
SYMATTR InstName U1
SYMBOL res -48 112 R0
SYMATTR InstName R1
SYMATTR Value 51k
SYMBOL cap -176 128 R0
SYMATTR InstName C1
SYMATTR Value 2.2µ
SYMBOL ind 112 16 R270
WINDOW 0 32 56 VTop 2
WINDOW 3 5 56 VBottom 2
SYMATTR InstName L1
SYMATTR Value 6.8µ
SYMBOL schottky 496 0 R270
WINDOW 0 32 32 VTop 2
WINDOW 3 0 32 VBottom 2
SYMATTR InstName D1
SYMATTR Value RB561VM-40
SYMATTR Description Diode
SYMATTR Type diode
SYMBOL res 384 144 R0
SYMATTR InstName R2
SYMATTR Value 10.2k
SYMBOL res 544 128 R90
WINDOW 0 0 56 VBottom 2
WINDOW 3 32 56 VTop 2
SYMATTR InstName R3
SYMATTR Value 50k
SYMBOL cap 560 176 R0
SYMATTR InstName C2
SYMATTR Value 10µ
SYMBOL res 672 96 R0
SYMATTR InstName R4
SYMATTR Value 50
SYMBOL voltage -320 112 R0
WINDOW 123 0 0 Left 0
WINDOW 39 0 0 Left 0
SYMATTR InstName V1
SYMATTR Value 5
SYMBOL cap 384 -16 R90
WINDOW 0 0 32 VBottom 2
WINDOW 3 32 32 VTop 2
SYMATTR InstName C3
SYMATTR Value 2.2µ
SYMBOL ind 416 -192 R0
SYMATTR InstName L2
SYMATTR Value 6.8µ
SYMBOL cap 384 80 R0
SYMATTR InstName C4
SYMATTR Value 2.2n
SYMBOL schottky -288 112 R270
WINDOW 0 32 32 VTop 2
WINDOW 3 0 32 VBottom 2
SYMATTR InstName D2
SYMATTR Value RB561VM-40
SYMATTR Description Diode
SYMATTR Type diode
TEXT -176 336 Left 2 !.tran 0 1m 0
TEXT 256 320 Left 2 !.include LMR64010_TRANS.lib
